<?xml version="1.0" encoding="UTF-8"?>

<!-- generated on Mon 28 Nov 2022 08:31:17 PM UTC by Eclipse SUMO netedit Version 1.8.0
<configuration xmlns:xsi="http://www.w3.org/2001/XMLSchema-instance" xsi:noNamespaceSchemaLocation="http://sumo.dlr.de/xsd/netconvertConfiguration.xsd">

    <input>
        <sumo-net-file value="/home/veins/src/veins/examples/xishan/xishan.net.xml"/>
    </input>

    <output>
        <output-file value="/home/veins/src/veins/examples/xishan/xishan.net.xml"/>
        <output.street-names value="true"/>
    </output>

    <processing>
        <geometry.min-radius.fix.railways value="false"/>
        <geometry.max-grade.fix value="false"/>
        <offset.disable-normalization value="true"/>
        <lefthand value="false"/>
    </processing>

    <junctions>
        <no-turnarounds value="true"/>
        <junctions.corner-detail value="5"/>
        <junctions.limit-turn-speed value="5.5"/>
        <rectangular-lane-cut value="false"/>
    </junctions>

    <pedestrian>
        <walkingareas value="false"/>
    </pedestrian>

    <report>
        <aggregate-warnings value="5"/>
    </report>

</configuration>
-->

<net version="1.6" junctionCornerDetail="5" limitTurnSpeed="5.50" xmlns:xsi="http://www.w3.org/2001/XMLSchema-instance" xsi:noNamespaceSchemaLocation="http://sumo.dlr.de/xsd/net_file.xsd">

    <location netOffset="-429409.16,-4422003.69" convBoundary="0.00,0.00,6980.50,5112.42" origBoundary="116.173360,39.938941,116.267855,39.992264" projParameter="+proj=utm +zone=50 +ellps=WGS84 +datum=WGS84 +units=m +no_defs"/>

    <type id="highway.bridleway" priority="1" numLanes="1" speed="2.78" allow="pedestrian" oneway="1" width="2.00"/>
    <type id="highway.bus_guideway" priority="1" numLanes="1" speed="27.78" allow="bus" oneway="1"/>
    <type id="highway.cycleway" priority="1" numLanes="1" speed="8.33" allow="bicycle" oneway="1" width="1.00"/>
    <type id="highway.footway" priority="1" numLanes="1" speed="2.78" allow="pedestrian" oneway="1" width="2.00"/>
    <type id="highway.ford" priority="1" numLanes="1" speed="2.78" allow="army" oneway="1"/>
    <type id="highway.living_street" priority="2" numLanes="1" speed="2.78" disallow="tram rail_urban rail rail_electric rail_fast ship" oneway="1"/>
    <type id="highway.motorway" priority="14" numLanes="2" speed="39.44" allow="private emergency authority army vip passenger hov taxi bus coach delivery truck trailer motorcycle evehicle custom1 custom2" oneway="1"/>
    <type id="highway.motorway_link" priority="9" numLanes="1" speed="22.22" allow="private emergency authority army vip passenger hov taxi bus coach delivery truck trailer motorcycle evehicle custom1 custom2" oneway="1"/>
    <type id="highway.path" priority="1" numLanes="1" speed="2.78" allow="pedestrian bicycle" oneway="1" width="2.00"/>
    <type id="highway.pedestrian" priority="1" numLanes="1" speed="2.78" allow="pedestrian" oneway="1" width="2.00"/>
    <type id="highway.primary" priority="12" numLanes="2" speed="27.78" disallow="tram rail_urban rail rail_electric rail_fast ship" oneway="1"/>
    <type id="highway.primary_link" priority="7" numLanes="1" speed="22.22" disallow="tram rail_urban rail rail_electric rail_fast ship" oneway="1"/>
    <type id="highway.raceway" priority="15" numLanes="2" speed="83.33" allow="vip" oneway="1"/>
    <type id="highway.residential" priority="3" numLanes="1" speed="13.89" disallow="tram rail_urban rail rail_electric rail_fast ship" oneway="1"/>
    <type id="highway.secondary" priority="11" numLanes="1" speed="27.78" disallow="tram rail_urban rail rail_electric rail_fast ship" oneway="1"/>
    <type id="highway.secondary_link" priority="6" numLanes="1" speed="22.22" disallow="tram rail_urban rail rail_electric rail_fast ship" oneway="1"/>
    <type id="highway.service" priority="1" numLanes="1" speed="5.56" allow="pedestrian delivery bicycle" oneway="1"/>
    <type id="highway.stairs" priority="1" numLanes="1" speed="1.39" allow="pedestrian" oneway="1" width="2.00"/>
    <type id="highway.step" priority="1" numLanes="1" speed="1.39" allow="pedestrian" oneway="1" width="2.00"/>
    <type id="highway.steps" priority="1" numLanes="1" speed="1.39" allow="pedestrian" oneway="1" width="2.00"/>
    <type id="highway.tertiary" priority="10" numLanes="1" speed="22.22" disallow="tram rail_urban rail rail_electric rail_fast ship" oneway="1"/>
    <type id="highway.tertiary_link" priority="5" numLanes="1" speed="22.22" disallow="tram rail_urban rail rail_electric rail_fast ship" oneway="1"/>
    <type id="highway.track" priority="1" numLanes="1" speed="5.56" disallow="tram rail_urban rail rail_electric rail_fast ship" oneway="1"/>
    <type id="highway.trunk" priority="13" numLanes="2" speed="27.78" disallow="pedestrian bicycle tram rail_urban rail rail_electric rail_fast ship" oneway="1"/>
    <type id="highway.trunk_link" priority="8" numLanes="1" speed="22.22" disallow="pedestrian bicycle tram rail_urban rail rail_electric rail_fast ship" oneway="1"/>
    <type id="highway.unclassified" priority="4" numLanes="1" speed="13.89" disallow="tram rail_urban rail rail_electric rail_fast ship" oneway="1"/>
    <type id="highway.unsurfaced" priority="1" numLanes="1" speed="8.33" disallow="tram rail_urban rail rail_electric rail_fast ship" oneway="1"/>
    <type id="railway.highspeed" priority="21" numLanes="1" speed="69.44" allow="rail_fast" oneway="1"/>
    <type id="railway.light_rail" priority="19" numLanes="1" speed="27.78" allow="rail_urban" oneway="1"/>
    <type id="railway.preserved" priority="16" numLanes="1" speed="27.78" allow="rail" oneway="1"/>
    <type id="railway.rail" priority="20" numLanes="1" speed="44.44" allow="rail" oneway="1"/>
    <type id="railway.subway" priority="18" numLanes="1" speed="27.78" allow="rail_urban" oneway="1"/>
    <type id="railway.tram" priority="17" numLanes="1" speed="13.89" allow="tram" oneway="1"/>

    <edge id=":10169276338_0" function="internal">
        <lane id=":10169276338_0_0" index="0" disallow="tram rail_urban rail rail_electric rail_fast ship" speed="7.12" length="9.80" shape="2347.87,3438.90 2350.66,3438.40 2352.71,3437.27 2354.03,3435.52 2354.62,3433.15"/>
    </edge>
    <edge id=":10169276338_1" function="internal">
        <lane id=":10169276338_1_0" index="0" disallow="tram rail_urban rail rail_electric rail_fast ship" speed="3.65" length="4.67" shape="2347.87,3438.90 2349.12,3439.63 2349.57,3440.40 2349.22,3441.22 2348.07,3442.10"/>
    </edge>
    <edge id=":10169276338_2" function="internal">
        <lane id=":10169276338_2_0" index="0" disallow="tram rail_urban rail rail_electric rail_fast ship" speed="6.22" length="9.05" shape="2353.42,3447.57 2353.27,3445.04 2352.33,3443.29 2350.59,3442.30 2348.07,3442.10"/>
    </edge>
    <edge id=":10169276338_3" function="internal">
        <lane id=":10169276338_3_0" index="0" disallow="tram rail_urban rail rail_electric rail_fast ship" speed="22.22" length="14.47" shape="2353.42,3447.57 2354.62,3433.15"/>
    </edge>
    <edge id=":10169276339_0" function="internal">
        <lane id=":10169276339_0_0" index="0" disallow="tram rail_urban rail rail_electric rail_fast ship" speed="3.65" length="4.67" shape="2141.66,3454.62 2140.41,3453.89 2139.96,3453.12 2140.31,3452.29 2141.46,3451.42"/>
    </edge>
    <edge id=":10169276340_0" function="internal">
        <lane id=":10169276340_0_0" index="0" disallow="tram rail_urban rail rail_electric rail_fast ship" speed="6.74" length="9.33" shape="2350.33,3415.27 2352.93,3415.03 2354.87,3414.08 2356.14,3412.41 2356.74,3410.02"/>
    </edge>
    <edge id=":10169276340_1" function="internal">
        <lane id=":10169276340_1_0" index="0" disallow="tram rail_urban rail rail_electric rail_fast ship" speed="3.65" length="4.67" shape="2350.33,3415.27 2351.50,3416.12 2351.86,3416.94 2351.43,3417.72 2350.20,3418.47"/>
    </edge>
    <edge id=":10169276340_2" function="internal">
        <lane id=":10169276340_2_0" index="0" disallow="tram rail_urban rail rail_electric rail_fast ship" speed="6.41" length="9.01" shape="2355.35,3424.36 2355.20,3421.87 2354.30,3420.06 2352.63,3418.92 2350.20,3418.47"/>
    </edge>
    <edge id=":10169276340_3" function="internal">
        <lane id=":10169276340_3_0" index="0" disallow="tram rail_urban rail rail_electric rail_fast ship" speed="22.22" length="14.41" shape="2355.35,3424.36 2356.74,3410.02"/>
    </edge>
    <edge id=":10169276346_0" function="internal">
        <lane id=":10169276346_0_0" index="0" disallow="tram rail_urban rail rail_electric rail_fast ship" speed="3.65" length="4.67" shape="1826.99,3319.93 1825.68,3319.32 1825.17,3318.59 1825.44,3317.74 1826.51,3316.77"/>
    </edge>
    <edge id=":1621564845_0" function="internal">
        <lane id=":1621564845_0_0" index="0" disallow="tram rail_urban rail rail_electric rail_fast ship" speed="22.22" length="0.30" shape="5637.63,1365.77 5637.51,1366.05"/>
    </edge>
    <edge id=":1621564985_0" function="internal">
        <lane id=":1621564985_0_0" index="0" disallow="tram rail_urban rail rail_electric rail_fast ship" speed="6.19" length="7.83" shape="5325.90,2304.37 5324.62,2303.68 5323.87,2302.30 5323.65,2300.26 5323.95,2297.53"/>
    </edge>
    <edge id=":1621564985_1" function="internal">
        <lane id=":1621564985_1_0" index="0" disallow="tram rail_urban rail rail_electric rail_fast ship" speed="3.65" length="4.67" shape="5325.90,2304.37 5324.91,2303.32 5324.70,2302.45 5325.27,2301.76 5326.61,2301.25"/>
    </edge>
    <edge id=":1621564985_2" function="internal">
        <lane id=":1621564985_2_0" index="0" disallow="tram rail_urban rail rail_electric rail_fast ship" speed="27.78" length="9.41" shape="5319.09,2306.20 5320.81,2296.94"/>
        <lane id=":1621564985_2_1" index="1" disallow="tram rail_urban rail rail_electric rail_fast ship" speed="27.78" length="9.41" shape="5322.23,2306.78 5323.95,2297.53"/>
    </edge>
    <edge id=":1621564985_4" function="internal">
        <lane id=":1621564985_4_0" index="0" disallow="tram rail_urban rail rail_electric rail_fast ship" speed="6.04" length="7.88" shape="5322.23,2306.78 5322.94,2304.08 5323.91,2302.26 5325.13,2301.32 5326.61,2301.25"/>
    </edge>
    <edge id=":1621565065_0" function="internal">
        <lane id=":1621565065_0_0" index="0" disallow="tram rail_urban rail rail_electric rail_fast ship" speed="7.49" length="10.41" shape="5354.73,2309.41 5351.72,2309.81 5349.43,2310.86 5347.86,2312.58 5347.00,2314.95"/>
    </edge>
    <edge id=":1621565065_1" function="internal">
        <lane id=":1621565065_1_0" index="0" disallow="tram rail_urban rail rail_electric rail_fast ship" speed="22.22" length="12.41" shape="5354.73,2309.41 5351.39,2309.43 5348.53,2309.28 5345.70,2308.89 5342.43,2308.20"/>
    </edge>
    <edge id=":1621565065_2" function="internal">
        <lane id=":1621565065_2_0" index="0" disallow="tram rail_urban rail rail_electric rail_fast ship" speed="3.65" length="2.34" shape="5354.73,2309.41 5353.52,2308.64 5353.10,2307.85"/>
    </edge>
    <edge id=":1621565065_9" function="internal">
        <lane id=":1621565065_9_0" index="0" disallow="tram rail_urban rail rail_electric rail_fast ship" speed="3.65" length="2.34" shape="5353.10,2307.85 5353.49,2307.04 5354.67,2306.21"/>
    </edge>
    <edge id=":1621565065_3" function="internal">
        <lane id=":1621565065_3_0" index="0" disallow="tram rail_urban rail rail_electric rail_fast ship" speed="6.06" length="9.07" shape="5349.94,2300.44 5349.75,2303.01 5350.47,2304.83 5352.11,2305.90 5354.67,2306.21"/>
    </edge>
    <edge id=":1621565065_4" function="internal">
        <lane id=":1621565065_4_0" index="0" disallow="tram rail_urban rail rail_electric rail_fast ship" speed="22.22" length="14.80" shape="5349.94,2300.44 5347.00,2314.95"/>
    </edge>
    <edge id=":1621565065_5" function="internal">
        <lane id=":1621565065_5_0" index="0" disallow="tram rail_urban rail rail_electric rail_fast ship" speed="7.41" length="12.15" shape="5349.94,2300.44 5348.72,2304.33 5347.06,2306.91 5344.97,2308.21 5342.43,2308.20"/>
    </edge>
    <edge id=":1621565065_6" function="internal">
        <lane id=":1621565065_6_0" index="0" disallow="tram rail_urban rail rail_electric rail_fast ship" speed="22.22" length="11.61" shape="5343.16,2305.09 5346.31,2305.76 5348.87,2306.12 5351.45,2306.24 5354.67,2306.21"/>
    </edge>
    <edge id=":1621565065_7" function="internal">
        <lane id=":1621565065_7_0" index="0" disallow="tram rail_urban rail rail_electric rail_fast ship" speed="7.47" length="3.94" shape="5343.16,2305.09 5345.43,2306.18 5346.24,2307.35"/>
    </edge>
    <edge id=":1621565065_8" function="internal">
        <lane id=":1621565065_8_0" index="0" disallow="tram rail_urban rail rail_electric rail_fast ship" speed="3.65" length="2.34" shape="5343.16,2305.09 5344.14,2306.14 5344.35,2307.01"/>
    </edge>
    <edge id=":1621565065_10" function="internal">
        <lane id=":1621565065_10_0" index="0" disallow="tram rail_urban rail rail_electric rail_fast ship" speed="7.47" length="7.84" shape="5346.24,2307.35 5346.83,2308.19 5347.35,2311.11 5347.00,2314.95"/>
    </edge>
    <edge id=":1621565065_11" function="internal">
        <lane id=":1621565065_11_0" index="0" disallow="tram rail_urban rail rail_electric rail_fast ship" speed="3.65" length="2.34" shape="5344.35,2307.01 5343.78,2307.70 5342.43,2308.20"/>
    </edge>
    <edge id=":1670551739_0" function="internal">
        <lane id=":1670551739_0_0" index="0" disallow="tram rail_urban rail rail_electric rail_fast ship" speed="6.54" length="8.97" shape="2426.43,2619.66 2424.05,2620.17 2422.39,2621.32 2421.44,2623.13 2421.20,2625.59"/>
    </edge>
    <edge id=":1670551739_1" function="internal">
        <lane id=":1670551739_1_0" index="0" disallow="tram rail_urban rail rail_electric rail_fast ship" speed="13.89" length="11.06" shape="2426.43,2619.66 2415.40,2620.48"/>
    </edge>
    <edge id=":1670551739_2" function="internal">
        <lane id=":1670551739_2_0" index="0" disallow="tram rail_urban rail rail_electric rail_fast ship" speed="3.65" length="2.34" shape="2426.43,2619.66 2425.18,2618.94 2424.73,2618.17"/>
    </edge>
    <edge id=":1670551739_9" function="internal">
        <lane id=":1670551739_9_0" index="0" disallow="tram rail_urban rail rail_electric rail_fast ship" speed="3.65" length="2.34" shape="2424.73,2618.17 2425.08,2617.35 2426.22,2616.47"/>
    </edge>
    <edge id=":1670551739_3" function="internal">
        <lane id=":1670551739_3_0" index="0" disallow="tram rail_urban rail rail_electric rail_fast ship" speed="6.56" length="8.97" shape="2420.21,2611.31 2420.78,2613.70 2421.98,2615.36 2423.79,2616.28 2426.22,2616.47"/>
    </edge>
    <edge id=":1670551739_4" function="internal">
        <lane id=":1670551739_4_0" index="0" disallow="tram rail_urban rail rail_electric rail_fast ship" speed="22.22" length="14.31" shape="2420.21,2611.31 2421.20,2625.59"/>
    </edge>
    <edge id=":1670551739_5" function="internal">
        <lane id=":1670551739_5_0" index="0" disallow="tram rail_urban rail rail_electric rail_fast ship" speed="7.28" length="11.67" shape="2420.21,2611.31 2420.22,2615.15 2419.42,2617.95 2417.82,2619.73 2415.40,2620.48"/>
    </edge>
    <edge id=":1670551739_6" function="internal">
        <lane id=":1670551739_6_0" index="0" disallow="tram rail_urban rail rail_electric rail_fast ship" speed="13.89" length="11.11" shape="2415.14,2617.29 2426.22,2616.47"/>
    </edge>
    <edge id=":1670551739_7" function="internal">
        <lane id=":1670551739_7_0" index="0" disallow="tram rail_urban rail rail_electric rail_fast ship" speed="7.21" length="4.10" shape="2415.14,2617.29 2417.65,2617.63 2418.86,2618.62"/>
    </edge>
    <edge id=":1670551739_8" function="internal">
        <lane id=":1670551739_8_0" index="0" disallow="tram rail_urban rail rail_electric rail_fast ship" speed="3.65" length="2.34" shape="2415.14,2617.29 2416.40,2617.99 2416.86,2618.75"/>
    </edge>
    <edge id=":1670551739_10" function="internal">
        <lane id=":1670551739_10_0" index="0" disallow="tram rail_urban rail rail_electric rail_fast ship" speed="7.21" length="7.57" shape="2418.86,2618.62 2419.50,2619.13 2420.68,2621.78 2421.20,2625.59"/>
    </edge>
    <edge id=":1670551739_11" function="internal">
        <lane id=":1670551739_11_0" index="0" disallow="tram rail_urban rail rail_electric rail_fast ship" speed="3.65" length="2.34" shape="2416.86,2618.75 2416.53,2619.58 2415.40,2620.48"/>
    </edge>
    <edge id=":1762167113_0" function="internal">
        <lane id=":1762167113_0_0" index="0" disallow="tram rail_urban rail rail_electric rail_fast ship" speed="22.22" length="0.58" shape="5824.76,62.55 5824.80,62.72 5824.82,62.83 5824.82,62.95 5824.80,63.12"/>
    </edge>
    <edge id=":1808572919_0" function="internal">
        <lane id=":1808572919_0_0" index="0" disallow="tram rail_urban rail rail_electric rail_fast ship" speed="6.17" length="7.69" shape="5310.24,2388.04 5309.05,2387.36 5308.36,2385.99 5308.17,2383.95 5308.49,2381.23"/>
    </edge>
    <edge id=":1808572919_1" function="internal">
        <lane id=":1808572919_1_0" index="0" disallow="tram rail_urban rail rail_electric rail_fast ship" speed="3.65" length="4.67" shape="5310.24,2388.04 5309.26,2386.98 5309.06,2386.11 5309.64,2385.43 5310.99,2384.93"/>
    </edge>
    <edge id=":1808572919_2" function="internal">
        <lane id=":1808572919_2_0" index="0" disallow="tram rail_urban rail rail_electric rail_fast ship" speed="27.78" length="9.19" shape="5303.39,2389.52 5305.34,2380.65"/>
        <lane id=":1808572919_2_1" index="1" disallow="tram rail_urban rail rail_electric rail_fast ship" speed="27.78" length="9.19" shape="5306.49,2390.31 5308.49,2381.23"/>
    </edge>
    <edge id=":1808572919_4" function="internal">
        <lane id=":1808572919_4_0" index="0" disallow="tram rail_urban rail rail_electric rail_fast ship" speed="6.10" length="7.72" shape="5306.49,2390.31 5307.35,2387.69 5308.39,2385.92 5309.60,2385.00 5310.99,2384.93"/>
    </edge>
    <edge id=":1808572942_0" function="internal">
        <lane id=":1808572942_0_0" index="0" disallow="tram rail_urban rail rail_electric rail_fast ship" speed="27.78" length="9.55" shape="5319.27,2383.59 5317.06,2392.97"/>
        <lane id=":1808572942_0_1" index="1" disallow="tram rail_urban rail rail_electric rail_fast ship" speed="27.78" length="9.55" shape="5316.14,2382.93 5313.96,2392.16"/>
    </edge>
    <edge id=":1808572942_2" function="internal">
        <lane id=":1808572942_2_0" index="0" disallow="tram rail_urban rail rail_electric rail_fast ship" speed="6.05" length="7.83" shape="5316.14,2382.93 5315.37,2385.60 5314.37,2387.40 5313.15,2388.33 5311.69,2388.39"/>
    </edge>
    <edge id=":1808572942_3" function="internal">
        <lane id=":1808572942_3_0" index="0" disallow="tram rail_urban rail rail_electric rail_fast ship" speed="6.06" length="7.83" shape="5312.44,2385.28 5313.71,2385.99 5314.38,2387.37 5314.47,2389.43 5313.96,2392.16"/>
    </edge>
    <edge id=":1808572942_4" function="internal">
        <lane id=":1808572942_4_0" index="0" disallow="tram rail_urban rail rail_electric rail_fast ship" speed="3.65" length="4.67" shape="5312.44,2385.28 5313.42,2386.33 5313.62,2387.21 5313.04,2387.89 5311.69,2388.39"/>
    </edge>
    <edge id=":1808573907_0" function="internal">
        <lane id=":1808573907_0_0" index="0" disallow="tram rail_urban rail rail_electric rail_fast ship" speed="6.34" length="9.73" shape="4834.98,2579.38 4833.43,2577.35 4831.57,2576.51 4829.39,2576.85 4826.89,2578.37"/>
    </edge>
    <edge id=":1808573907_1" function="internal">
        <lane id=":1808573907_1_0" index="0" disallow="tram rail_urban rail rail_electric rail_fast ship" speed="13.89" length="15.21" shape="4834.98,2579.38 4832.94,2576.20 4830.42,2573.34 4827.52,2570.83 4824.36,2568.74"/>
    </edge>
    <edge id=":1808573907_2" function="internal">
        <lane id=":1808573907_2_0" index="0" disallow="tram rail_urban rail rail_electric rail_fast ship" speed="11.19" length="5.40" shape="4834.98,2579.38 4833.44,2575.57 4833.25,2574.30"/>
    </edge>
    <edge id=":1808573907_3" function="internal">
        <lane id=":1808573907_3_0" index="0" disallow="tram rail_urban rail rail_electric rail_fast ship" speed="3.65" length="2.16" shape="4834.98,2579.38 4835.12,2577.95 4835.54,2577.36"/>
    </edge>
    <edge id=":1808573907_16" function="internal">
        <lane id=":1808573907_16_0" index="0" disallow="tram rail_urban rail rail_electric rail_fast ship" speed="11.19" length="10.15" shape="4833.25,2574.30 4832.88,2571.81 4833.30,2568.11 4834.70,2564.46"/>
    </edge>
    <edge id=":1808573907_17" function="internal">
        <lane id=":1808573907_17_0" index="0" disallow="tram rail_urban rail rail_electric rail_fast ship" speed="3.65" length="2.51" shape="4835.54,2577.36 4835.64,2577.22 4836.54,2577.20 4837.81,2577.89"/>
    </edge>
    <edge id=":1808573907_4" function="internal">
        <lane id=":1808573907_4_0" index="0" disallow="tram rail_urban rail rail_electric rail_fast ship" speed="10.05" length="12.44" shape="4837.54,2565.95 4836.43,2568.85 4836.10,2571.80 4836.56,2574.82 4837.81,2577.89"/>
    </edge>
    <edge id=":1808573907_5" function="internal">
        <lane id=":1808573907_5_0" index="0" disallow="tram rail_urban rail rail_electric rail_fast ship" speed="13.89" length="16.45" shape="4837.54,2565.95 4835.44,2569.32 4832.81,2572.65 4829.88,2575.74 4826.89,2578.37"/>
    </edge>
    <edge id=":1808573907_6" function="internal">
        <lane id=":1808573907_6_0" index="0" disallow="tram rail_urban rail rail_electric rail_fast ship" speed="8.22" length="15.47" shape="4837.54,2565.95 4835.15,2569.11 4832.16,2570.63 4828.56,2570.50 4824.36,2568.74"/>
    </edge>
    <edge id=":1808573907_7" function="internal">
        <lane id=":1808573907_7_0" index="0" disallow="tram rail_urban rail rail_electric rail_fast ship" speed="3.65" length="4.67" shape="4837.54,2565.95 4836.27,2566.64 4835.38,2566.62 4834.85,2565.90 4834.70,2564.46"/>
    </edge>
    <edge id=":1808573907_8" function="internal">
        <lane id=":1808573907_8_0" index="0" disallow="tram rail_urban rail rail_electric rail_fast ship" speed="6.78" length="10.17" shape="4825.95,2565.97 4828.79,2567.19 4831.20,2567.35 4833.17,2566.44 4834.70,2564.46"/>
    </edge>
    <edge id=":1808573907_9" function="internal">
        <lane id=":1808573907_9_0" index="0" disallow="tram rail_urban rail rail_electric rail_fast ship" speed="13.89" length="16.98" shape="4825.95,2565.97 4829.31,2568.26 4832.63,2571.20 4835.58,2574.51 4837.81,2577.89"/>
    </edge>
    <edge id=":1808573907_10" function="internal">
        <lane id=":1808573907_10_0" index="0" disallow="tram rail_urban rail rail_electric rail_fast ship" speed="7.50" length="7.76" shape="4825.95,2565.97 4829.61,2568.81 4830.91,2571.65"/>
    </edge>
    <edge id=":1808573907_11" function="internal">
        <lane id=":1808573907_11_0" index="0" disallow="tram rail_urban rail rail_electric rail_fast ship" speed="3.65" length="2.44" shape="4825.95,2565.97 4826.60,2567.26 4826.54,2568.15 4826.46,2568.21"/>
    </edge>
    <edge id=":1808573907_18" function="internal">
        <lane id=":1808573907_18_0" index="0" disallow="tram rail_urban rail rail_electric rail_fast ship" speed="7.50" length="8.14" shape="4830.91,2571.65 4830.99,2571.82 4830.08,2575.01 4826.89,2578.37"/>
    </edge>
    <edge id=":1808573907_19" function="internal">
        <lane id=":1808573907_19_0" index="0" disallow="tram rail_urban rail rail_electric rail_fast ship" speed="3.65" length="2.23" shape="4826.46,2568.21 4825.80,2568.65 4824.36,2568.74"/>
    </edge>
    <edge id=":1808573907_12" function="internal">
        <lane id=":1808573907_12_0" index="0" disallow="tram rail_urban rail rail_electric rail_fast ship" speed="5.84" length="9.13" shape="4824.90,2575.86 4826.73,2573.93 4827.25,2572.10 4826.46,2570.37 4824.36,2568.74"/>
    </edge>
    <edge id=":1808573907_13" function="internal">
        <lane id=":1808573907_13_0" index="0" disallow="tram rail_urban rail rail_electric rail_fast ship" speed="13.89" length="15.14" shape="4824.90,2575.86 4827.76,2573.39 4830.40,2570.66 4832.74,2567.67 4834.70,2564.46"/>
    </edge>
    <edge id=":1808573907_14" function="internal">
        <lane id=":1808573907_14_0" index="0" disallow="tram rail_urban rail rail_electric rail_fast ship" speed="7.87" length="15.61" shape="4824.90,2575.86 4828.83,2573.50 4832.29,2573.06 4835.28,2574.52 4837.81,2577.89"/>
    </edge>
    <edge id=":1808573907_15" function="internal">
        <lane id=":1808573907_15_0" index="0" disallow="tram rail_urban rail rail_electric rail_fast ship" speed="3.65" length="4.67" shape="4824.90,2575.86 4826.34,2575.74 4827.15,2576.12 4827.33,2576.99 4826.89,2578.37"/>
    </edge>
    <edge id=":1808573912_0" function="internal">
        <lane id=":1808573912_0_0" index="0" disallow="tram rail_urban rail rail_electric rail_fast ship" speed="6.16" length="7.64" shape="5116.27,2910.34 5118.68,2910.09 5120.43,2909.36 5121.51,2908.17 5121.93,2906.51"/>
    </edge>
    <edge id=":1808573912_1" function="internal">
        <lane id=":1808573912_1_0" index="0" disallow="tram rail_urban rail rail_electric rail_fast ship" speed="27.78" length="11.46" shape="5116.27,2910.34 5127.73,2910.25"/>
    </edge>
    <edge id=":1808573912_2" function="internal">
        <lane id=":1808573912_2_0" index="0" disallow="tram rail_urban rail rail_electric rail_fast ship" speed="27.78" length="7.41" shape="5121.57,2913.91 5121.93,2906.51"/>
        <lane id=":1808573912_2_1" index="1" disallow="tram rail_urban rail rail_electric rail_fast ship" speed="27.78" length="7.41" shape="5124.77,2914.06 5125.13,2906.66"/>
    </edge>
    <edge id=":1808573912_4" function="internal">
        <lane id=":1808573912_4_0" index="0" disallow="tram rail_urban rail rail_electric rail_fast ship" speed="5.31" length="5.41" shape="5124.77,2914.06 5125.02,2912.41 5125.60,2911.22 5126.51,2910.50 5127.73,2910.25"/>
    </edge>
    <edge id=":1808573913_0" function="internal">
        <lane id=":1808573913_0_0" index="0" allow="pedestrian delivery bicycle" speed="8.19" length="2.20" shape="4521.08,2225.96 4520.82,2225.37 4520.69,2224.94 4520.65,2224.49 4520.67,2223.84"/>
    </edge>
    <edge id=":1808573913_1" function="internal">
        <lane id=":1808573913_1_0" index="0" disallow="tram rail_urban rail rail_electric rail_fast ship" speed="3.65" length="2.34" shape="4521.08,2225.96 4521.32,2224.54 4521.89,2223.85"/>
    </edge>
    <edge id=":1808573913_3" function="internal">
        <lane id=":1808573913_3_0" index="0" disallow="tram rail_urban rail rail_electric rail_fast ship" speed="3.65" length="2.34" shape="4521.89,2223.85 4522.79,2223.90 4524.00,2224.67"/>
    </edge>
    <edge id=":1808573913_2" function="internal">
        <lane id=":1808573913_2_0" index="0" allow="pedestrian delivery bicycle" speed="9.72" length="0.73" shape="4523.87,2223.96 4523.86,2224.18 4523.88,2224.33 4523.92,2224.47 4524.00,2224.67"/>
    </edge>
    <edge id=":1808573919_0" function="internal">
        <lane id=":1808573919_0_0" index="0" disallow="tram rail_urban rail rail_electric rail_fast ship" speed="5.69" length="7.01" shape="5134.40,2906.55 5134.62,2908.14 5135.51,2909.28 5137.08,2909.95 5139.31,2910.16"/>
    </edge>
    <edge id=":1808573919_1" function="internal">
        <lane id=":1808573919_1_0" index="0" disallow="tram rail_urban rail rail_electric rail_fast ship" speed="27.78" length="6.96" shape="5134.40,2906.55 5133.96,2913.49"/>
        <lane id=":1808573919_1_1" index="1" disallow="tram rail_urban rail rail_electric rail_fast ship" speed="27.78" length="6.96" shape="5131.20,2906.34 5130.77,2913.29"/>
    </edge>
    <edge id=":1808573919_3" function="internal">
        <lane id=":1808573919_3_0" index="0" disallow="tram rail_urban rail rail_electric rail_fast ship" speed="27.78" length="11.38" shape="5127.93,2910.25 5139.31,2910.16"/>
    </edge>
    <edge id=":1808573919_4" function="internal">
        <lane id=":1808573919_4_0" index="0" disallow="tram rail_urban rail rail_electric rail_fast ship" speed="4.86" length="4.82" shape="5127.93,2910.25 5129.24,2910.43 5130.15,2911.00 5130.66,2911.95 5130.77,2913.29"/>
    </edge>
    <edge id=":1808573921_0" function="internal">
        <lane id=":1808573921_0_0" index="0" disallow="tram rail_urban rail rail_electric rail_fast ship" speed="6.44" length="9.03" shape="5151.50,2896.71 5151.79,2899.18 5152.81,2900.94 5154.55,2901.98 5157.01,2902.32"/>
    </edge>
    <edge id=":1808573921_1" function="internal">
        <lane id=":1808573921_1_0" index="0" disallow="tram rail_urban rail rail_electric rail_fast ship" speed="22.22" length="9.41" shape="5151.50,2896.71 5151.20,2906.12"/>
    </edge>
    <edge id=":1808573921_2" function="internal">
        <lane id=":1808573921_2_0" index="0" disallow="tram rail_urban rail rail_electric rail_fast ship" speed="22.22" length="11.33" shape="5145.68,2902.40 5157.01,2902.32"/>
    </edge>
    <edge id=":1808573921_3" function="internal">
        <lane id=":1808573921_3_0" index="0" disallow="tram rail_urban rail rail_electric rail_fast ship" speed="5.93" length="7.58" shape="5145.68,2902.40 5148.16,2902.62 5149.90,2903.31 5150.92,2904.48 5151.20,2906.12"/>
    </edge>
    <edge id=":1808593198_0" function="internal">
        <lane id=":1808593198_0_0" index="0" disallow="tram rail_urban rail rail_electric rail_fast ship" speed="27.78" length="10.69" shape="5690.23,2906.43 5700.92,2906.36"/>
    </edge>
    <edge id=":1808593198_1" function="internal">
        <lane id=":1808593198_1_0" index="0" disallow="tram rail_urban rail rail_electric rail_fast ship" speed="5.41" length="8.58" shape="5690.23,2906.43 5693.75,2906.61 5695.96,2907.18 5696.87,2908.16 5696.48,2909.54"/>
    </edge>
    <edge id=":1808593198_2" function="internal">