<?xml version="1.0" encoding="UTF-8"?>

<!-- generated on 11/28/22 15:28:04 by Eclipse SUMO polyconvert Version 1.6.0
<configuration xmlns:xsi="http://www.w3.org/2001/XMLSchema-instance" xsi:noNamespaceSchemaLocation="http://sumo.dlr.de/xsd/polyconvertConfiguration.xsd">

    <input>
        <osm-files value="map.osm"/>
    </input>

    <output>
        <output-file value="xishan.poly.xml"/>
    </output>

    <projection>
        <proj.scale value="1"/>
        <proj.utm value="true"/>
    </projection>

    <processing>
        <poi-layer-offset value="5"/>
    </processing>

</configuration>
-->

<additional xmlns:xsi="http://www.w3.org/2001/XMLSchema-instance" xsi:noNamespaceSchemaLocation="http://sumo.dlr.de/xsd/additional_file.xsd">
    <location netOffset="0.00,0.00" convBoundary="429361.86,4419491.06,437482.61,4429039.54" origBoundary="116.172809,39.922936,116.267855,40.009199" projParameter="+proj=utm +zone=50 +ellps=WGS84 +datum=WGS84 +units=m +no_defs"/>

    <poly id="1016762217" type="parking" color="184,184,179" fill="1" layer="-1.00" shape="433859.149919,4424198.650766 433882.161617,4424137.878459 433932.621702,4424151.559819 433942.865398,4424126.285156 433944.221053,4424126.994898 433966.288242,4424138.458544 433958.708030,4424158.659598 433951.169599,4424178.749299 433983.932841,4424187.578368 433982.538427,4424191.264542 433981.110527,4424195.028706 433964.544173,4424238.761876 433939.664513,4424234.859508 433934.315453,4424220.797837 433859.149919,4424198.650766"/>
    <poly id="1016762221" type="building" color="255,230,230" fill="1" layer="-1.00" shape="434280.895740,4424278.483356 434280.414140,4424298.889238 434284.549490,4424323.817373 434295.265993,4424353.250823 434313.363540,4424378.935446 434334.871182,4424396.976140 434351.301290,4424406.602482 434346.370573,4424416.202046 434331.253753,4424406.342393 434307.309648,4424385.059333 434303.845826,4424387.475699 434289.602753,4424378.918386 434275.461792,4424356.463066 434268.690598,4424328.949189 434275.210784,4424327.372233 434271.750709,4424305.479665 434271.736776,4424278.129482 434280.895740,4424278.483356"/>
    <poly id="1016762221#1" type="forest" color="140,196,107" fill="1" layer="-3.00" shape="434280.895740,4424278.483356 434280.414140,4424298.889238 434284.549490,4424323.817373 434295.265993,4424353.250823 434313.363540,4424378.935446 434334.871182,4424396.976140 434351.301290,4424406.602482 434346.370573,4424416.202046 434331.253753,4424406.342393 434307.309648,4424385.059333 434303.845826,4424387.475699 434289.602753,4424378.918386 434275.461792,4424356.463066 434268.690598,4424328.949189 434275.210784,4424327.372233 434271.750709,4424305.479665 434271.736776,4424278.129482 434280.895740,4424278.483356"/>
    <poly id="1016762222" type="parking" color="184,184,179" fill="1" layer="-1.00" shape="434321.439266,4424406.216113 434281.025493,4424444.981662 434261.468846,4424375.908851 434244.966154,4424282.700611 434266.489503,4424275.788270 434270.810328,4424322.204321 434262.793230,4424327.479387 434268.089204,4424360.211871 434275.274527,4424359.506072 434290.973078,4424386.288040 434297.349027,4424392.748718 434305.821368,4424388.768456 434321.439266,4424406.216113"/>
    <poly id="1016762223" type="water" color="181,209,209" fill="1" layer="-4.00" shape="434644.298215,4424274.724062 434654.096100,4424272.897312 434665.923149,4424280.610226 434667.734881,4424313.594835 434664.297000,4424319.052197 434633.041882,4424334.516178 434620.715611,4424345.255719 434614.203603,4424348.785900 434610.026237,4424344.703677 434605.790229,4424332.796495 434616.294162,4424312.737514 434629.446029,4424295.686111 434641.964635,4424281.470653 434644.298215,4424274.724062"/>
    <poly id="1016762224" type="water" color="181,209,209" fill="1" layer="-4.00" shape="434411.769495,4424664.388755 434411.438409,4424668.587392 434435.214435,4424662.544102 434444.013677,4424662.834659 434450.116471,4424669.353311 434454.375011,4424695.778972 434451.186339,4424709.315068 434458.401712,4424717.100647 434468.814507,4424713.359160 434495.150860,4424707.116427 434510.010257,4424666.273987 434493.594587,4424653.272802 434477.818947,4424652.132003 434478.974375,4424637.525615 434472.543612,4424635.571846 434467.123110,4424643.832453 434454.602055,4424636.814021 434436.792129,4424633.504121 434432.321553,4424645.952362 434424.536686,4424657.341345 434411.769495,4424664.388755"/>
    <poly id="1016762225" type="water" color="181,209,209" fill="1" layer="-4.00" shape="434306.388455,4424642.664133 434322.024986,4424649.455659 434331.944846,4424651.934217 434350.597755,4424647.022632 434360.996440,4424641.638326 434370.725263,4424643.752282 434373.470256,4424639.199844 434374.160775,4424638.061698 434351.379375,4424610.874412 434341.074096,4424605.302260 434331.209394,4424609.227893 434322.910988,4424603.638463 434313.495811,4424595.316982 434304.860496,4424550.669701 434297.268799,4424540.878416 434262.721819,4424551.765867 434247.690069,4424572.519354 434276.242402,4424610.245906 434280.717345,4424661.677838 434278.252619,4424694.743708 434265.483585,4424723.325322 434269.495781,4424741.916442 434274.352273,4424752.452800 434288.146429,4424758.549756 434298.753187,4424755.527857 434309.842073,4424745.031537 434316.340324,4424734.019825 434321.425441,4424707.691251 434330.472228,4424694.104583 434316.409063,4424677.620302 434303.567998,4424676.088259 434296.724332,4424668.843515 434304.156889,4424660.199127 434306.388455,4424642.664133"/>
    <poly id="1016762226" type="water" color="181,209,209" fill="1" layer="-4.00" shape="434547.017614,4424141.627325 434562.975850,4424147.994796 434573.325173,4424159.638547 434576.417790,4424189.559649 434577.516356,4424216.034694 434586.789878,4424230.717988 434594.133736,4424248.459248 434603.581845,4424256.625392 434617.788323,4424261.931317 434646.422937,4424245.623966 434651.055826,4424227.136106 434655.966582,4424215.150436 434651.985128,4424208.025124 434633.060086,4424187.341795 434623.362981,4424175.048571 434610.168383,4424161.275787 434599.144029,4424146.607496 434588.808892,4424135.618486 434575.287668,4424132.560016 434568.501335,4424131.019911 434555.889353,4424134.380535 434547.017614,4424141.627325"/>
    <poly id="1016762227" type="water" color="181,209,209" fill="1" layer="-4.00" shape="434373.736424,4424140.731677 434398.425458,4424173.075188 434408.951053,4424180.366021 434433.572302,4424179.066265 434442.648137,4424170.740887 434453.223932,4424158.062532 434477.548550,4424148.085310 434493.045213,4424151.426319 434517.035091,4424153.173651 434526.173678,4424151.141508 434528.732877,4424144.814740 434512.632796,4424147.783619 434476.638184,4424143.531061 434448.515493,4424142.907213 434433.871138,4424131.422693 434421.961251,4424122.079151 434409.947107,4424118.486301 434397.079565,4424117.953306 434382.229954,4424114.384918 434371.689327,4424105.362657 434370.566211,4424101.898047 434357.056922,4424102.225345 434350.804274,4424110.093595 434339.724923,4424113.885369 434335.870270,4424121.510964 434325.849367,4424122.252247 434317.317883,4424118.418619 434313.981312,4424110.843919 434306.403353,4424116.559143 434312.174242,4424129.096729 434311.353646,4424134.964582 434300.527205,4424143.316316 434285.118425,4424150.175800 434288.681542,4424159.258129 434279.984235,4424161.941649 434283.534235,4424169.503394 434296.857943,4424172.429852 434308.181828,4424171.255494 434308.720448,4424158.441498 434321.591663,4424159.407210 434320.973379,4424163.974623 434350.395240,4424163.721005 434356.948740,4424140.221423 434373.736424,4424140.731677"/>
    <poly id="1016762228" type="water" color="181,209,209" fill="1" layer="-4.00" shape="434100.637721,4424026.606305 434096.308926,4424035.679121 434083.943055,4424043.789182 434081.921282,4424050.000455 434087.442014,4424059.243354 434114.220196,4424068.302375 434129.280667,4424071.535423 434157.675966,4424088.838983 434169.124110,4424093.135628 434177.855749,4424084.535407 434177.859557,4424054.332384 434210.073382,4424033.141789 434221.209954,4424032.013324 434228.768040,4424036.854247 434235.629121,4424050.991860 434244.162688,4424078.801289 434257.120920,4424108.637133 434263.351825,4424110.137355 434273.715509,4424109.526232 434295.992851,4424107.780062 434301.444360,4424109.031739 434310.955154,4424099.647957 434302.074614,4424091.987870 434292.737149,4424090.769710 434283.442462,4424095.500768 434275.069455,4424086.282340 434270.012372,4424071.352131 434276.376586,4424057.610974 434279.418518,4424049.836961 434274.617275,4424033.872247 434274.534922,4424024.326995 434280.954912,4424017.045537 434284.259788,4424010.046255 434282.627360,4424001.013874 434274.002532,4423992.319316 434266.676135,4423984.634760 434266.088308,4423976.892064 434269.573293,4423960.078862 434262.645348,4423938.194029 434261.741241,4423923.494391 434260.075441,4423910.599518 434250.109859,4423896.999276 434244.295424,4423884.395512 434237.298265,4423854.508232 434222.197361,4423846.635533 434196.975399,4423867.510359 434177.688275,4423885.237105 434159.235633,4423878.936383 434113.536705,4423869.774405 434099.016980,4423868.867695 434086.247593,4423860.975094 434072.950562,4423852.321183 434059.720066,4423850.371094 434053.800951,4423855.317410 434050.779735,4423866.454623 434060.369493,4423895.797608 434053.375795,4423926.582836 434055.778892,4423934.820405 434080.032723,4423952.170637 434092.069417,4423965.231046 434097.158216,4423983.779456 434096.757834,4423997.724470 434097.354667,4424006.488276 434103.155819,4424017.538054 434100.637721,4424026.606305"/>
    <poly id="1016762230" type="water" color="181,209,209" fill="1" layer="-4.00" shape="434470.109933,4423943.621611 434460.040767,4423922.895826 434456.628653,4423910.504339 434437.137960,4423902.646788 434404.195331,4423908.768937 434376.865353,4423926.897427 434358.352192,4423948.235630 434351.131208,4423960.707599 434351.038032,4423987.559188 434351.028231,4423991.377656 434361.835261,4424012.463244 434364.115026,4424063.925185 434357.581389,4424070.907854 434358.477287,4424090.624753 434366.187066,4424091.279820 434370.931617,4424089.784849 434378.879757,4424075.475138 434396.027480,4424066.203283 434416.402724,4424048.867316 434432.863157,4424045.073740 434448.692740,4424053.329075 434464.763155,4424045.898140 434484.677149,4424017.610679 434502.556473,4424007.966480 434512.382831,4423999.479341 434522.511538,4423984.429548 434532.366182,4423979.227778 434534.109576,4423967.413552 434534.787219,4423962.779051 434535.013309,4423946.349187 434531.675110,4423941.549397 434529.452583,4423938.360612 434518.398828,4423932.250746 434504.051486,4423926.535508 434495.279647,4423929.530213 434480.746252,4423943.896425 434477.474649,4423946.843849 434475.374065,4423945.918421 434470.109933,4423943.621611"/>
    <poly id="1016762236" type="water" color="181,209,209" fill="1" layer="-4.00" shape="433716.664056,4423918.449427 433710.176850,4423916.974077 433702.831279,4423922.865482 433704.823510,4423938.809905 433711.163029,4423959.633786 433715.832161,4423964.199648 433727.875651,4423967.169561 433769.469837,4423964.965241 433801.963875,4423980.034071 433843.936513,4424021.416445 433881.018643,4424032.760573 433901.225461,4424052.243261 433901.403913,4424072.809953 433915.532117,4424102.468593 433932.570256,4424112.144278 433951.558277,4424098.470962 433949.588416,4424084.058084 433936.502533,4424068.209804 433929.381903,4424064.586369 433932.618014,4424046.742856 433928.474050,4424030.817044 433882.624193,4424004.197521 433861.622875,4423999.473636 433831.073249,4423960.433934 433821.118121,4423950.086437 433789.038152,4423947.290491 433767.397656,4423939.808524 433740.877097,4423937.885746 433729.424553,4423932.157878 433716.664056,4423918.449427"/>
    <poly id="1052890767" type="landuse" color="194,194,130" fill="1" layer="-3.00" shape="434207.608945,4425911.855978 434430.270159,4426039.161105 434509.723977,4425925.834573 434571.699555,4425966.427139 434547.088758,4426042.762364 434532.809867,4426173.631859 434505.889554,4426232.493544 434115.639423,4426002.283760 434207.608945,4425911.855978"/>
    <poly id="1052890776" type="landuse" color="194,194,130" fill="1" layer="-3.00" shape="434109.078555,4426008.856238 433958.648270,4426144.902597 433983.094637,4426156.667467 433973.684087,4426173.321383 433986.076613,4426181.505614 433936.301281,4426268.794941 434306.116347,4426488.726695 434346.640741,4426475.945068 434356.433151,4426467.879718 434383.310485,4426404.267014 434410.846719,4426417.072196 434419.772130,4426416.384797 434440.646650,4426389.354106 434468.133123,4426324.970584 434379.804750,4426270.964113 434358.659904,4426305.278891 434272.290207,4426254.742158 434275.839550,4426246.508617 434240.058928,4426219.445028 434257.031352,4426190.460648 434273.809167,4426180.458980 434288.958737,4426152.955615 434312.648124,4426137.422085 434206.992850,4426070.790996 434196.982681,4426071.488012 434190.972281,4426070.618665 434182.608944,4426066.239867 434178.220129,4426057.375615 434176.966714,4426054.622554 434140.111362,4426033.762506 434140.522594,4426027.010151 434109.078555,4426008.856238"/>
    <poly id="1052890777" type="landuse" color="194,194,130" fill="1" layer="-3.00" shape="434126.123176,4426498.374121 434132.563915,4426502.636287 434176.502568,4426430.516895 434030.630503,4426340.926134 433969.554979,4426439.535324 434013.286356,4426462.821321 434127.523269,4426460.855093 434126.123176,4426498.374121"/>
    <poly id="1052890778" type="landuse" color="194,194,130" fill="1" layer="-3.00" shape="433945.807962,4426463.983771 433957.038025,4426445.504716 433773.036972,4426334.149610 433698.356752,4426409.524986 433792.863239,4426466.622297 433945.807962,4426463.983771"/>
    <poly id="1052890793" type="leisure" color="207,245,201" fill="1" layer="-2.00" shape="434585.437175,4425980.139667 434558.258440,4426044.830838 434543.981416,4426176.932391 434462.446057,4426369.563808 434795.326477,4426515.433840 434921.822001,4426586.179292 434953.748734,4426529.440797 434986.784654,4426501.541820 434976.891991,4426497.941126 434996.085013,4426435.783828 435011.534474,4426441.168601 435058.807340,4426299.473593 435049.812337,4426267.005216 434998.497832,4426228.371299 434931.002303,4426183.804322 434872.326617,4426149.219050 434585.437175,4425980.139667"/>
    <poly id="1052890800" type="water" color="181,209,209" fill="1" layer="-4.00" shape="434605.421463,4426345.290640 434594.092632,4426344.522170 434588.855116,4426344.134274 434584.558533,4426350.897787 434583.147741,4426364.585095 434586.010297,4426367.812792 434595.382086,4426368.387164 434603.054939,4426373.960036 434605.304778,4426382.398898 434616.906976,4426388.160029 434628.454008,4426388.493758 434634.305017,4426384.758318 434647.019428,4426393.762240 434661.019631,4426400.368649 434663.293995,4426385.808146 434671.523710,4426379.665822 434674.499088,4426371.170999 434664.230431,4426367.573932 434652.717707,4426372.234848 434644.689498,4426375.988965 434637.954644,4426378.222388 434634.280809,4426381.939129 434630.793603,4426381.536175 434625.765043,4426379.625761 434621.367784,4426374.668532 434620.342195,4426356.662062 434611.583911,4426351.964295 434605.421463,4426345.290640"/>
    <poly id="1052890801" type="water" color="181,209,209" fill="1" layer="-4.00" shape="434893.076152,4426288.013262 434888.044936,4426284.792901 434883.265150,4426287.009381 434880.949506,4426296.797169 434883.032031,4426310.665427 434882.240999,4426320.007275 434874.113226,4426338.092070 434870.851707,4426338.119974 434854.723410,4426338.257980 434847.039502,4426331.375155 434838.131065,4426334.059901 434837.106892,4426342.093953 434846.307890,4426347.653986 434855.881244,4426345.840457 434868.786582,4426352.234616 434867.754299,4426358.326237 434895.522448,4426369.377376 434895.166750,4426378.704400 434897.212881,4426389.320680 434904.868876,4426392.951500 434898.325047,4426417.527315 434883.767165,4426421.559025 434869.378880,4426421.460120 434864.755442,4426414.995092 434845.271107,4426404.095158 434835.023685,4426403.960876 434826.444816,4426394.266337 434818.146282,4426392.383795 434810.833134,4426402.869302 434812.401171,4426408.494664 434831.865115,4426417.008193 434834.353492,4426427.409773 434839.641100,4426433.658198 434847.480698,4426433.801994 434857.674994,4426428.730856 434866.395900,4426429.089130 434875.384094,4426435.738815 434884.001110,4426448.907374 434889.244807,4426451.027016 434894.379047,4426440.349321 434901.978512,4426436.377135 434906.751568,4426434.382721 434915.416874,4426403.273087 434923.125935,4426387.145510 434924.591891,4426380.839290 434916.376239,4426362.683365 434915.240007,4426356.621392 434920.663045,4426353.744533 434924.120642,4426350.684680 434926.206934,4426340.033067 434922.501440,4426340.064744 434922.028901,4426335.728693 434924.831925,4426332.008438 434926.104843,4426328.090365 434921.930504,4426324.218858 434914.257842,4426318.645667 434909.866340,4426314.343125 434909.793928,4426305.874461 434903.842595,4426297.900067 434893.076152,4426288.013262"/>
    <poly id="1061949483" type="building" color="255,230,230" fill="1" layer="-1.00" shape="433480.168784,4424440.600451 433480.170426,4424450.568226 433544.115130,4424450.542856 433544.105516,4424440.630653 433540.475757,4424440.640123 433540.479079,4424434.168802 433485.151745,4424434.174443 433485.156623,4424440.601293 433480.168784,4424440.600451"/>
    <poly id="1061949484" type="building" color="255,230,230" fill="1" layer="-1.00" shape="433571.582311,4424439.769377 433571.583736,4424449.726051 433635.528431,4424449.701449 433635.519033,4424439.800346 433631.889177,4424439.798673 433631.892674,4424433.338452 433576.565348,4424433.343430 433576.570052,4424439.759180 433571.582311,4424439.769377"/>
    <poly id="1061949485" type="building" color="255,230,230" fill="1" layer="-1.00" shape="433563.571598,4424469.209804 433563.706453,4424484.670908 433633.837886,4424484.070627 433633.701335,4424468.398640 433615.322994,4424468.558793 433615.346984,4424471.311380 433583.048255,4424471.592946 433583.025995,4424469.040143 433563.571598,4424469.209804"/>
    <poly id="1061949486" type="building" color="255,230,230" fill="1" layer="-1.00" shape="433482.281785,4424468.376368 433482.416805,4424483.837472 433552.548158,4424483.225343 433552.411537,4424467.564455 433534.033191,4424467.724804 433534.057113,4424470.466292 433501.749933,4424470.759376 433501.727646,4424468.206574 433482.281785,4424468.376368"/>
    <poly id="1061949487" type="building" color="255,230,230" fill="1" layer="-1.00" shape="433483.343555,4424497.049465 433483.573923,4424535.164814 433510.731956,4424535.005394 433510.758601,4424538.057658 433525.029307,4424537.966398 433524.772508,4424496.798785 433483.343555,4424497.049465"/>
    <poly id="1061949488" type="building" color="255,230,230" fill="1" layer="-1.00" shape="433491.399076,4424548.094569 433491.846950,4424606.232404 433512.317449,4424606.075882 433512.256424,4424598.106623 433604.506231,4424597.412903 433604.571320,4424605.859425 433625.195633,4424605.712967 433624.749415,4424545.688134 433604.765539,4424545.840108 433605.000904,4424577.739415 433505.090382,4424578.488900 433504.858267,4424547.988156 433491.399076,4424548.094569"/>
    <poly id="1061949490" type="leisure" color="207,245,201" fill="1" layer="-2.00" shape="433367.952092,4424504.174129 433367.990761,4424598.412731 433370.011859,4424605.876446 433372.908879,4424612.910699 433377.218770,4424619.388695 433382.492694,4424624.770463 433389.727886,4424629.802081 433397.721277,4424633.639377 433406.885603,4424635.623844 433415.611477,4424636.302356 433424.534840,4424635.147653 433432.901079,4424631.811131 433440.168587,4424627.840420 433447.085005,4424621.808186 433452.582935,4424614.711653 433456.222853,4424607.076357 433458.332280,4424599.243534 433458.844707,4424595.331861 433458.048237,4424504.163500 433456.793857,4424498.424664 433454.564935,4424492.583343 433450.040667,4424486.007277 433445.523859,4424480.285848 433440.355274,4424475.236117 433434.775778,4424472.032578 433427.013692,4424469.269918 433420.248073,4424468.141355 433412.065665,4424467.125083 433402.696175,4424468.072797 433393.681591,4424471.514917 433386.636969,4424475.594719 433380.142707,4424480.102614 433373.987252,4424487.216049 433370.239048,4424494.186330 433368.758820,4424499.738175 433367.952092,4424504.174129"/>
    <poly id="1061949494" type="building" color="255,230,230" fill="1" layer="-1.00" shape="433598.053187,4424402.875322 433598.378710,4424416.703064 433641.176678,4424415.708493 433640.846784,4424401.370190 433638.387497,4424401.424916 433638.332933,4424399.083295 433612.160511,4424399.688759 433612.187168,4424400.787425 433601.666999,4424401.034522 433601.707907,4424402.787963 433598.053187,4424402.875322"/>
    <poly id="1061949499" type="landuse" color="194,194,130" fill="1" layer="-3.00" shape="433804.453957,4424172.230635 433835.902487,4424348.269397 433750.249878,4424367.395433 433678.469642,4424382.783049 433677.391235,4424256.963072 433740.106413,4424193.957725 433804.453957,4424172.230635"/>
    <poly id="1061949500" type="building" color="255,230,230" fill="1" layer="-1.00" shape="433359.662896,4424454.829484 433359.652513,4424473.166761 433371.857316,4424473.170990 433371.876366,4424454.844738 433359.662896,4424454.829484"/>
    <poly id="1061949501" type="building" color="255,230,230" fill="1" layer="-1.00" shape="433597.675926,4424497.739075 433597.785591,4424524.033984 433624.645046,4424523.910873 433624.527031,4424497.627139 433597.675926,4424497.739075"/>
    <poly id="1061949502" type="leisure" color="207,245,201" fill="1" layer="-2.00" shape="433765.760440,4424448.956386 433778.085740,4424542.388746 433781.068768,4424549.533398 433784.858364,4424556.127141 433789.965385,4424561.987935 433795.907440,4424566.642676 433803.731813,4424570.703863 433812.159868,4424573.472214 433821.510152,4424574.256765 433830.243294,4424573.803492 433838.943256,4424571.496820 433846.805260,4424567.110640 433853.484413,4424562.235242 433859.565408,4424555.355948 433864.084420,4424547.602224 433866.696410,4424539.565360 433867.771101,4424531.530746 433867.762414,4424527.579229 433855.089708,4424437.291059 433853.094360,4424431.758399 433850.125623,4424426.256392 433844.778762,4424420.319942 433839.558878,4424415.237090 433833.773158,4424410.891756 433827.815939,4424408.434911 433819.764002,4424406.706670 433812.903530,4424406.455480 433804.662151,4424406.515996 433795.499488,4424408.671325 433787.015554,4424413.251660 433780.559029,4424418.202877 433774.703508,4424423.515175 433769.527592,4424431.352363 433766.722279,4424438.758242 433765.977556,4424444.459006 433765.760440,4424448.956386"/>
    <poly id="1061949505" type="forest" color="140,196,107" fill="1" layer="-3.00" shape="433887.057471,4424339.822149 433885.655317,4424333.751534 434059.228284,4424303.697856 434089.547690,4424530.607405 434078.897154,4424546.361634 434029.637501,4424552.615611 434033.549345,4424598.002820 434039.247461,4424664.253614 434045.400966,4424735.761863 434050.721491,4424744.617971 434121.903938,4424743.380334 434114.613871,4424898.776441 433940.785449,4424897.829132 433904.468363,4424637.583292 433908.682658,4424637.036122 433949.611184,4424633.339987 433948.884596,4424625.387605 433938.127067,4424482.035919 433924.684996,4424425.054248 433902.401716,4424414.192007 433887.057471,4424339.822149"/>
    <poly id="1061949506" type="landuse" color="194,194,130" fill="1" layer="-3.00" shape="433422.319816,4424051.429766 433439.729421,4424139.700095 433634.499477,4424100.238647 433631.881313,4424012.460646 433422.319816,4424051.429766"/>
    <poly id="1061949508" type="landuse" color="194,194,130" fill="1" layer="-3.00" shape="432707.586871,4424184.793749 432750.141198,4424465.625556 432674.133808,4424479.805721 432664.124297,4424428.634342 432635.212940,4424435.327986 432615.442132,4424429.675357 432570.035498,4424210.263617 432707.586871,4424184.793749"/>
    <poly id="1061949511" type="building" color="255,230,230" fill="1" layer="-1.00" shape="433908.682658,4424637.036122 433907.964567,4424629.083670 433948.884596,4424625.387605 433949.611184,4424633.339987 433908.682658,4424637.036122"/>
    <poly id="1061949512" type="building" color="255,230,230" fill="1" layer="-1.00" shape="433903.632540,4424632.795354 433903.917474,4424637.088573 433907.767055,4424636.833168 433907.490664,4424632.539875 433903.632540,4424632.795354"/>
    <poly id="1061949513" type="building" color="255,230,230" fill="1" layer="-1.00" shape="433889.785840,4424632.515930 433890.281203,4424639.404717 433866.132582,4424641.845456 433865.303428,4424633.893971 433884.247145,4424632.009008 433884.358777,4424633.062537 433889.785840,4424632.515930"/>
    <poly id="1061949514" type="building" color="255,230,230" fill="1" layer="-1.00" shape="433857.468897,4424642.420187 433857.308991,4424633.841292 433795.681599,4424634.987220 433795.841574,4424643.566115 433857.468897,4424642.420187"/>
    <poly id="1061949515" type="building" color="255,230,230" fill="1" layer="-1.00" shape="433867.840274,4424411.617102 433888.252908,4424553.319795 433878.170356,4424554.761514 433877.916012,4424553.009925 433873.813078,4424553.600544 433853.671514,4424413.638226 433867.840274,4424411.617102"/>
    <poly id="1061949516" type="building" color="255,230,230" fill="1" layer="-1.00" shape="433862.323857,4424377.299476 433872.691835,4424429.368242 433898.287406,4424424.306488 433887.928138,4424372.237615 433862.323857,4424377.299476"/>
    <poly id="1061949517" type="building" color="255,230,230" fill="1" layer="-1.00" shape="433753.871501,4424380.195509 433758.470398,4424409.126457 433857.255036,4424393.549453 433852.566383,4424364.075334 433844.770729,4424365.308533 433847.869101,4424384.750980 433806.622164,4424391.269795 433803.568415,4424372.060074 433792.625485,4424373.786877 433795.643171,4424392.774909 433768.085576,4424397.132569 433765.112936,4424378.421654 433753.871501,4424380.195509"/>
    <poly id="1061949518" type="building" color="255,230,230" fill="1" layer="-1.00" shape="433844.274577,4424349.484278 433846.437269,4424361.497868 433878.057745,4424355.839829 433875.895006,4424343.815131 433844.274577,4424349.484278"/>
    <poly id="1061949519" type="building" color="255,230,230" fill="1" layer="-1.00" shape="433895.739102,4424517.435196 433896.986411,4424531.254941 433907.995368,4424530.271408 433908.279114,4424533.443539 433918.025008,4424532.570881 433917.618305,4424528.023419 433934.072067,4424526.559789 433932.947686,4424514.104269 433895.739102,4424517.435196"/>
    <poly id="1061949520" type="building" color="255,230,230" fill="1" layer="-1.00" shape="433919.372788,4424535.334182 433922.014131,4424563.161106 433918.873718,4424563.454751 433921.967246,4424596.150643 433940.715708,4424594.389616 433936.635451,4424551.312700 433940.671898,4424550.933591 433939.017430,4424533.487680 433919.372788,4424535.334182"/>
    <poly id="1061949521" type="building" color="255,230,230" fill="1" layer="-1.00" shape="433796.880777,4424602.964451 433797.427033,4424608.820493 433794.201339,4424609.126031 433795.010449,4424617.710383 433798.355698,4424617.403806 433798.590807,4424619.888158 433832.503496,4424616.707477 433832.757795,4424619.435863 433833.689655,4424620.526666 433836.161653,4424620.960291 433838.166764,4424619.755175 433839.432716,4424618.012581 433838.220655,4424607.278330 433882.648354,4424602.297145 433882.842049,4424603.949360 433884.227293,4424605.125033 433885.782337,4424605.200334 433887.696700,4424604.362319 433888.976697,4424603.252311 433888.119914,4424592.115370 433899.548300,4424591.250282 433899.913757,4424595.964601 433906.425905,4424595.464090 433905.106929,4424578.303871 433902.546472,4424578.503690 433902.141944,4424573.223611 433880.847169,4424574.851435 433878.849940,4424576.966669 433879.502802,4424587.239581 433835.158502,4424590.033362 433834.231225,4424588.487420 433832.945503,4424587.954690 433830.564390,4424588.152976 433827.734075,4424589.731562 433828.694541,4424600.012898 433796.880777,4424602.964451"/>
    <poly id="1061949522" type="leisure" color="207,245,201" fill="1" layer="-2.00" shape="433774.324609,4424445.751726 433789.762955,4424546.560722 433858.740316,4424536.071352 433843.294328,4424435.262302 433774.324609,4424445.751726"/>
    <poly id="1061949522#1" type="sport" color="79,230,125" fill="1" layer="-2.00" shape="433774.324609,4424445.751726 433789.762955,4424546.560722 433858.740316,4424536.071352 433843.294328,4424435.262302 433774.324609,4424445.751726"/>
    <poly id="1061949523" type="forest" color="140,196,107" fill="1" layer="-3.00" shape="434029.637501,4424552.615611 434033.549345,4424598.002820 434051.341294,4424613.999207 434055.033104,4424662.596226 434039.247461,4424664.253614 434045.400966,4424735.761863 434050.721491,4424744.617971 434121.903938,4424743.380334 434122.314222,4424842.155454 434122.548058,4424899.795604 434269.861221,4424897.068669 434263.972657,4424809.496324 434250.539324,4424781.873456 434241.967212,4424722.806825 434259.627089,4424687.966971 434258.752605,4424629.200191 434246.769802,4424600.465914 434237.480306,4424585.938558 434152.723587,4424532.636177 434093.464833,4424377.260738 434088.892884,4424357.220456 434091.116037,4424317.041539 434074.743291,4424289.433305 434064.774633,4424280.395414 434059.228284,4424303.697856 434089.547690,4424530.607405 434078.897154,4424546.361634 434029.637501,4424552.615611"/>